data/Network_10R-10/scenario_1/case.raw
 0,    100.00, 33, 0, 1, 60.00       / March 18, 2019 17:14:25; Simulator Version 20; BuildDate 2019_3_5


    1,'19155031900 ',  69.0000,3,   1,   1,   1,1.00000000, -10.810000, 1.10000, 0.90000, 1.10000, 0.90000
    2,'19193003600 ', 138.0000,2,   1,   1,   1,1.00000155, -21.242138, 1.10000, 0.90000, 1.10000, 0.90000
    3,'19115450100 ',  69.0000,2,   1,   1,   1,1.00000441, -23.938541, 1.10000, 0.90000, 1.10000, 0.90000
    4,'19179960200 ',  69.0000,2,   1,   1,   1,1.00000298, -31.013987, 1.10000, 0.90000, 1.10000, 0.90000
    5,'19193002102 ',  69.0000,2,   1,   1,   1,1.00000155, -20.864208, 1.10000, 0.90000, 1.10000, 0.90000
    6,'19113010600 ',  69.0000,2,   1,   1,   1,1.00000417, -24.310791, 1.10000, 0.90000, 1.10000, 0.90000
    7,'19033950700 ',  69.0000,2,   1,   1,   1,1.00000370, -32.240696, 1.10000, 0.90000, 1.10000, 0.90000
    8,'19153003902 ',  69.0000,2,   1,   1,   1,1.00000215, -38.569839, 1.10000, 0.90000, 1.10000, 0.90000
    9,'19005960100 ',  69.0000,2,   1,   1,   1,1.00000572, -32.188421, 1.10000, 0.90000, 1.10000, 0.90000
   10,'19131560100 ',  69.0000,2,   1,   1,   1,1.00000381, -41.621510, 1.10000, 0.90000, 1.10000, 0.90000
   11,'19139051000 ',  69.0000,2,   1,   1,   1,1.00000453, -24.356745, 1.10000, 0.90000, 1.10000, 0.90000
   12,'19013001501 ',  69.0000,2,   1,   1,   1,1.00000358, -39.387368, 1.10000, 0.90000, 1.10000, 0.90000
   13,'19151780300 ', 138.0000,2,   1,   1,   1,1.00000179, -35.157641, 1.10000, 0.90000, 1.10000, 0.90000
   14,'19113010700 ',  69.0000,2,   1,   1,   1,1.00000429, -29.067438, 1.10000, 0.90000, 1.10000, 0.90000
   15,'19113003002 ',  69.0000,2,   1,   1,   1,1.00000429, -29.375428, 1.10000, 0.90000, 1.10000, 0.90000
   16,'19197680400 ',  69.0000,2,   1,   1,   1,1.00000286, -33.677183, 1.10000, 0.90000, 1.10000, 0.90000
   17,'19045000200 ', 345.0000,2,   1,   1,   1,1.00000548, -27.086346, 1.10000, 0.90000, 1.10000, 0.90000
   18,'19057000700 ',  69.0000,2,   1,   1,   1,1.00000536, -31.074731, 1.10000, 0.90000, 1.10000, 0.90000
   19,'19081270100 ', 345.0000,2,   1,   1,   1,1.00413632, -33.475116, 1.10000, 0.90000, 1.10000, 0.90000
   20,'19069360200 ',  69.0000,2,   1,   1,   1,1.00000334, -37.974547, 1.10000, 0.90000, 1.10000, 0.90000
   21,'19127950500 ',  69.0000,2,   1,   1,   1,1.00000298, -34.041963, 1.10000, 0.90000, 1.10000, 0.90000
   22,'19021960600 ',  69.0000,2,   1,   1,   1,1.00000191, -33.401397, 1.10000, 0.90000, 1.10000, 0.90000
   23,'19009070300 ',  69.0000,2,   1,   1,   1,1.00000060, -25.565465, 1.10000, 0.90000, 1.10000, 0.90000
   24,'19045000300 ',  69.0000,2,   1,   1,   1,1.00000548, -28.187238, 1.10000, 0.90000, 1.10000, 0.90000
   25,'19153010802 ',  69.0000,2,   1,   1,   1,1.00000226, -43.463144, 1.10000, 0.90000, 1.10000, 0.90000
   26,'19001960100 ',  69.0000,2,   1,   1,   1,1.00000083, -26.487981, 1.10000, 0.90000, 1.10000, 0.90000
   27,'19195690100 ', 230.0000,2,   1,   1,   1,1.00000405, -39.224810, 1.10000, 0.90000, 1.10000, 0.90000
   28,'19153011702 ',  69.0000,2,   1,   1,   1,1.00000262, -45.021014, 1.10000, 0.90000, 1.10000, 0.90000
   29,'19155021502 ',  69.0000,2,   1,   1,   1,1.00000024, -18.676558, 1.10000, 0.90000, 1.10000, 0.90000
   30,'19027960300 ',  69.0000,2,   1,   1,   1,1.00000119, -29.196668, 1.10000, 0.90000, 1.10000, 0.90000
   31,'19081270300 ', 345.0000,2,   1,   1,   1,1.00000358, -34.955283, 1.10000, 0.90000, 1.10000, 0.90000
   32,'19127950200 ',  69.0000,2,   1,   1,   1,1.00000310, -42.939115, 1.10000, 0.90000, 1.10000, 0.90000
   33,'19169010500 ',  69.0000,2,   1,   1,   1,1.00000310, -42.800182, 1.10000, 0.90000, 1.10000, 0.90000
   34,'19163013702 ',  69.0000,2,   1,   1,   1,1.00000548, -30.366591, 1.10000, 0.90000, 1.10000, 0.90000
   35,'19153005100 ',  69.0000,2,   1,   1,   1,1.00000215, -40.181784, 1.10000, 0.90000, 1.10000, 0.90000
   36,'19111490900 ',  69.0000,2,   1,   1,   1,1.00000584, -34.838486, 1.10000, 0.90000, 1.10000, 0.90000
   37,'19127950900 ',  69.0000,2,   1,   1,   1,1.00000298, -33.891105, 1.10000, 0.90000, 1.10000, 0.90000
   38,'19035080400 ',  69.0000,2,   1,   1,   1,1.00000167, -24.682924, 1.10000, 0.90000, 1.10000, 0.90000
   39,'19169000900 ',  69.0000,2,   1,   1,   1,0.99851918, -45.271628, 1.10000, 0.90000, 1.10000, 0.90000
   40,'19059450200 ',  69.0000,2,   1,   1,   1,1.00000203, -18.762004, 1.10000, 0.90000, 1.10000, 0.90000
   41,'27105105500 ',  69.0000,2,   1,   1,   1,1.00000226, -18.482821, 1.10000, 0.90000, 1.10000, 0.90000
   42,'19089960300 ',  69.0000,2,   1,   1,   1,1.00000441, -44.661767, 1.10000, 0.90000, 1.10000, 0.90000
   43,'19047070100 ',  69.0000,2,   1,   1,   1,1.00000119, -29.980589, 1.10000, 0.90000, 1.10000, 0.90000
   44,'19081270200 ', 138.0000,2,   1,   1,   1,1.00000334, -34.177990, 1.10000, 0.90000, 1.10000, 0.90000
   45,'19033950102 ',  69.0000,2,   1,   1,   1,1.00000381, -36.331907, 1.10000, 0.90000, 1.10000, 0.90000
   46,'19175190400 ',  69.0000,2,   1,   1,   1,1.00000119, -32.584497, 1.10000, 0.90000, 1.10000, 0.90000
   47,'19113001900 ',  69.0000,2,   1,   1,   1,0.99800777, -30.158526, 1.10000, 0.90000, 1.10000, 0.90000
   48,'19041080300 ',  69.0000,2,   1,   1,   1,1.01266217, -28.387899, 1.10000, 0.90000, 1.10000, 0.90000
   49,'19021960200 ',  69.0000,2,   1,   1,   1,1.00000191, -32.034581, 1.10000, 0.90000, 1.10000, 0.90000
   50,'19195690300 ', 138.0000,2,   1,   1,   1,1.00000393, -38.616605, 1.10000, 0.90000, 1.10000, 0.90000
   51,'19195690200 ',  69.0000,2,   1,   1,   1,1.00000393, -36.535539, 1.10000, 0.90000, 1.10000, 0.90000
   52,'19057000600 ',  69.0000,2,   1,   1,   1,1.00000536, -31.615624, 1.10000, 0.90000, 1.10000, 0.90000
   53,'19057000300 ',  69.0000,2,   1,   1,   1,1.00000536, -31.782554, 1.10000, 0.90000, 1.10000, 0.90000
   54,'19169001000 ',  69.0000,2,   1,   1,   1,1.00000238, -45.710935, 1.10000, 0.90000, 1.10000, 0.90000
   55,'19067480400 ',  69.0000,2,   1,   1,   1,1.00000393, -41.030056, 1.10000, 0.90000, 1.10000, 0.90000
   56,'19103000200 ', 230.0000,2,   1,   1,   1,1.00000441, -29.511683, 1.10000, 0.90000, 1.10000, 0.90000
   57,'19061000100 ',  69.0000,2,   1,   1,   1,1.00927722, -35.808520, 1.10000, 0.90000, 1.10000, 0.90000
   58,'19189680200 ',  69.0000,2,   1,   1,   1,1.00000381, -31.398376, 1.10000, 0.90000, 1.10000, 0.90000
   59,'17161024103 ',  69.0000,2,   1,   1,   1,1.00000489, -27.222521, 1.10000, 0.90000, 1.10000, 0.90000
   60,'19007950300 ',  69.0000,2,   1,   1,   1,1.00000286, -36.471991, 1.10000, 0.90000, 1.10000, 0.90000
   61,'19181021000 ',  69.0000,2,   1,   1,   1,1.00000226, -45.366926, 1.10000, 0.90000, 1.10000, 0.90000
   62,'19111491000 ',  69.0000,2,   1,   1,   1,1.00000584, -35.083745, 1.10000, 0.90000, 1.10000, 0.90000
   63,'19143460200 ',  69.0000,2,   1,   1,   1,1.00000191, -18.397880, 1.10000, 0.90000, 1.10000, 0.90000
   64,'19157370300 ',  69.0000,2,   1,   1,   1,1.00000381, -44.027539, 1.10000, 0.90000, 1.10000, 0.90000
   65,'19169000800 ',  69.0000,2,   1,   1,   1,1.00000238, -45.851391, 1.10000, 0.90000, 1.10000, 0.90000
   66,'19059451100 ',  69.0000,2,   1,   1,   1,1.00000203, -19.736375, 1.10000, 0.90000, 1.10000, 0.90000
   67,'19013002303 ',  69.0000,2,   1,   1,   1,1.00000358, -39.566104, 1.10000, 0.90000, 1.10000, 0.90000
   68,'19033950900 ',  69.0000,2,   1,   1,   1,1.00000370, -32.480210, 1.10000, 0.90000, 1.10000, 0.90000
   69,'19135070100 ',  69.0000,2,   1,   1,   1,0.98952281, -36.402883, 1.10000, 0.90000, 1.10000, 0.90000
   70,'19067480500 ', 138.0000,2,   1,   1,   1,0.99860424, -40.193040, 1.10000, 0.90000, 1.10000, 0.90000
   71,'19111490800 ',  69.0000,2,   1,   1,   1,1.00000584, -35.413418, 1.10000, 0.90000, 1.10000, 0.90000
   72,'19033950800 ',  69.0000,2,   1,   1,   1,1.00000381, -33.251629, 1.10000, 0.90000, 1.10000, 0.90000
   73,'19125030200 ',  69.0000,2,   1,   1,   1,0.99110949, -41.457851, 1.10000, 0.90000, 1.10000, 0.90000
   74,'19087970300 ',  69.0000,2,   1,   1,   1,0.97249752, -40.957772, 1.10000, 0.90000, 1.10000, 0.90000
   75,'19041080200 ',  69.0000,2,   1,   1,   1,1.00599205, -29.120402, 1.10000, 0.90000, 1.10000, 0.90000
   76,'19113002200 ',  69.0000,2,   1,   1,   1,0.99880219, -30.271207, 1.10000, 0.90000, 1.10000, 0.90000
   77,'19189680300 ',  69.0000,2,   1,   1,   1,0.99641430, -35.463975, 1.10000, 0.90000, 1.10000, 0.90000
   78,'19079960300 ',  69.0000,2,   1,   1,   1,1.00000203, -44.218532, 1.10000, 0.90000, 1.10000, 0.90000
   79,'19147960400 ',  69.0000,2,   1,   1,   1,0.99558282, -33.049236, 1.10000, 0.90000, 1.10000, 0.90000
   80,'19145490200 ',  69.0000,2,   1,   1,   1,1.00000024, -19.263466, 1.10000, 0.90000, 1.10000, 0.90000
   81,'19189680100 ', 345.0000,2,   1,   1,   1,0.99526650, -36.815051, 1.10000, 0.90000, 1.10000, 0.90000
   82,'17141961700 ',  69.0000,2,   1,   1,   1,1.03233707, -23.423843, 1.10000, 0.90000, 1.10000, 0.90000
   83,'17197884004 ',  69.0000,2,   1,   1,   1,1.00000715, -18.134362, 1.10000, 0.90000, 1.10000, 0.90000
   84,'17099962500 ',  69.0000,2,   1,   1,   1,1.00000703, -17.222957, 1.10000, 0.90000, 1.10000, 0.90000
   85,'19045000800 ',  69.0000,2,   1,   1,   1,1.00000548, -22.150500, 1.10000, 0.90000, 1.10000, 0.90000
   86,'17063000700 ',  69.0000,2,   1,   1,   1,1.00000715, -21.315248, 1.10000, 0.90000, 1.10000, 0.90000
   87,'17157950700 ',  69.0000,2,   1,   1,   1,1.04231679,  -7.965742, 1.10000, 0.90000, 1.10000, 0.90000
   88,'17179020900 ',  69.0000,2,   1,   1,   1,1.00000632, -20.886034, 1.10000, 0.90000, 1.10000, 0.90000
   89,'17197883307 ',  69.0000,2,   1,   1,   1,1.00000727, -25.951012, 1.10000, 0.90000, 1.10000, 0.90000
   90,'17197882900 ',  69.0000,2,   1,   1,   1,1.00000727, -33.805936, 1.10000, 0.90000, 1.10000, 0.90000
   91,'17021958200 ',  69.0000,2,   1,   1,   1,1.00000584,  -8.480839, 1.10000, 0.90000, 1.10000, 0.90000
   92,'17043841604 ',  69.0000,2,   1,   1,   1,1.00350738, -40.254055, 1.10000, 0.90000, 1.10000, 0.90000
   93,'17197880502 ',  69.0000,2,   1,   1,   1,1.00000727, -35.560232, 1.10000, 0.90000, 1.10000, 0.90000
   94,'17197883212 ',  69.0000,2,   1,   1,   1,1.00000727, -35.975347, 1.10000, 0.90000, 1.10000, 0.90000
   95,'17079977500 ',  69.0000,2,   1,   1,   1,1.00000679, -11.323947, 1.10000, 0.90000, 1.10000, 0.90000
   96,'17039971500 ',  69.0000,2,   1,   1,   1,1.00000691, -20.036734, 1.10000, 0.90000, 1.10000, 0.90000
   97,'17127970200 ',  69.0000,2,   1,   1,   1,1.00000679, -16.236931, 1.10000, 0.90000, 1.10000, 0.90000
   98,'17135958000 ',  69.0000,2,   1,   1,   1,1.00000644, -10.628853, 1.10000, 0.90000, 1.10000, 0.90000
   99,'17103000200 ',  69.0000,2,   1,   1,   1,1.04269683, -27.883213, 1.10000, 0.90000, 1.10000, 0.90000
  100,'17179020800 ',  69.0000,2,   1,   1,   1,1.00000644, -23.916177, 1.10000, 0.90000, 1.10000, 0.90000
  101,'17197883606 ',  69.0000,2,   1,   1,   1,1.00000739, -37.834231, 1.10000, 0.90000, 1.10000, 0.90000
  102,'17049950200 ',  69.0000,2,   1,   1,   1,1.00000691, -14.088238, 1.10000, 0.90000, 1.10000, 0.90000
  103,'17197883509 ',  69.0000,2,   1,   1,   1,1.00000727, -34.857392, 1.10000, 0.90000, 1.10000, 0.90000
  104,'17147954500 ',  69.0000,2,   1,   1,   1,1.00000703, -25.408871, 1.10000, 0.90000, 1.10000, 0.90000
  105,'17097862200 ',  69.0000,2,   1,   1,   1,1.00150657, -49.908373, 1.10000, 0.90000, 1.10000, 0.90000
  106,'17077010300 ',  69.0000,2,   1,   1,   1,1.04500699, -16.138144, 1.10000, 0.90000, 1.10000, 0.90000
  107,'17167002500 ',  69.0000,2,   1,   1,   1,1.00000668, -21.183658, 1.10000, 0.90000, 1.10000, 0.90000
  108,'17161020100 ',  69.0000,2,   1,   1,   1,1.00000560, -24.019658, 1.10000, 0.90000, 1.10000, 0.90000
  109,'17031830500 ', 138.0000,2,   1,   1,   1,0.97771168, -48.197944, 1.10000, 0.90000, 1.10000, 0.90000
  110,'17097860101 ',  69.0000,2,   1,   1,   1,1.02933836, -46.950331, 1.10000, 0.90000, 1.10000, 0.90000
  111,'17119400700 ',  69.0000,2,   1,   1,   1,1.00133657, -14.557884, 1.10000, 0.90000, 1.10000, 0.90000
  112,'17031804507 ',  69.0000,2,   1,   1,   1,1.00342751, -43.385870, 1.10000, 0.90000, 1.10000, 0.90000
  113,'17119402400 ',  69.0000,2,   1,   1,   1,1.00242651, -15.169992, 1.10000, 0.90000, 1.10000, 0.90000
  114,'17125956500 ',  69.0000,2,   1,   1,   1,1.00000608, -23.390825, 1.10000, 0.90000, 1.10000, 0.90000
  115,'17035972600 ',  69.0000,2,   1,   1,   1,1.00000691, -15.840423, 1.10000, 0.90000, 1.10000, 0.90000
  116,'17025972000 ',  69.0000,2,   1,   1,   1,1.00000679, -17.198017, 1.10000, 0.90000, 1.10000, 0.90000
  117,'17057953700 ', 138.0000,2,   1,   1,   1,1.00000596, -24.712512, 1.10000, 0.90000, 1.10000, 0.90000
  118,'17089850400 ',  69.0000,2,   1,   1,   1,1.00596750, -42.131465, 1.10000, 0.90000, 1.10000, 0.90000
  119,'17031520200 ',  69.0000,2,   1,   1,   1,1.00000739, -45.606826, 1.10000, 0.90000, 1.10000, 0.90000
  120,'17145030200 ',  69.0000,2,   1,   1,   1,1.04500699, -15.570536, 1.10000, 0.90000, 1.10000, 0.90000
  121,'17031310500 ',  69.0000,1,   1,   1,   1,0.98239797, -50.518104, 1.10000, 0.90000, 1.10000, 0.90000
  122,'17197882601 ',  69.0000,2,   1,   1,   1,1.00000727, -34.692539, 1.10000, 0.90000, 1.10000, 0.90000
  123,'17197883811 ',  69.0000,2,   1,   1,   1,1.00000727, -39.293317, 1.10000, 0.90000, 1.10000, 0.90000
  124,'17197883602 ',  69.0000,2,   1,   1,   1,1.00000739, -38.379014, 1.10000, 0.90000, 1.10000, 0.90000
  125,'17115001000 ',  69.0000,2,   1,   1,   1,1.00000715, -30.114635, 1.10000, 0.90000, 1.10000, 0.90000
  126,'17201002200 ',  69.0000,2,   1,   1,   1,1.01041698, -37.149341, 1.10000, 0.90000, 1.10000, 0.90000
  127,'17031838800 ',  69.0000,2,   1,   1,   1,0.99924338, -43.826387, 1.10000, 0.90000, 1.10000, 0.90000
  128,'17011965200 ',  69.0000,2,   1,   1,   1,1.01541686, -31.397741, 1.10000, 0.90000, 1.10000, 0.90000
  129,'17127970100 ',  69.0000,2,   1,   1,   1,1.00000679, -17.656367, 1.10000, 0.90000, 1.10000, 0.90000
  130,'17105960200 ',  69.0000,2,   1,   1,   1,1.00076711, -26.124995, 1.10000, 0.90000, 1.10000, 0.90000
  131,'17031310400 ',  69.0000,1,   1,   1,   1,0.97117370, -50.645207, 1.10000, 0.90000, 1.10000, 0.90000
  132,'17199021400 ', 138.0000,1,   1,   1,   1,1.00074601, -22.954775, 1.10000, 0.90000, 1.10000, 0.90000
  133,'17121951700 ',  69.0000,2,   1,   1,   1,1.00440669, -11.755422, 1.10000, 0.90000, 1.10000, 0.90000
  134,'17053962000 ',  69.0000,2,   1,   1,   1,1.00000727, -25.516554, 1.10000, 0.90000, 1.10000, 0.90000
  135,'17125956400 ',  69.0000,2,   1,   1,   1,1.01330626, -20.997287, 1.10000, 0.90000, 1.10000, 0.90000
  136,'17037001800 ', 230.0000,2,   1,   1,   1,1.00061929, -37.826059, 1.10000, 0.90000, 1.10000, 0.90000
  137,'17099963700 ',  69.0000,2,   1,   1,   1,1.04500723, -26.431915, 1.10000, 0.90000, 1.10000, 0.90000
  138,'17063000600 ',  69.0000,2,   1,   1,   1,1.04096735, -19.790331, 1.10000, 0.90000, 1.10000, 0.90000
  139,'17113005101 ',  69.0000,2,   1,   1,   1,1.00000703, -28.175676, 1.10000, 0.90000, 1.10000, 0.90000
  140,'17113001105 ',  69.0000,2,   1,   1,   1,1.00000703, -27.871091, 1.10000, 0.90000, 1.10000, 0.90000
  141,'17183000900 ',  69.0000,2,   1,   1,   1,1.00000811, -36.920888, 1.10000, 0.90000, 1.10000, 0.90000
  142,'17183001300 ',  69.0000,2,   1,   1,   1,1.00000823, -34.336105, 1.10000, 0.90000, 1.10000, 0.90000
  143,'17063000103 ',  69.0000,2,   1,   1,   1,1.00000715, -25.299763, 1.10000, 0.90000, 1.10000, 0.90000
  144,'17201002100 ',  69.0000,2,   1,   1,   1,1.00000691, -37.221017, 1.10000, 0.90000, 1.10000, 0.90000
  145,'17119401500 ',  69.0000,2,   1,   1,   1,1.00145650, -14.876623, 1.10000, 0.90000, 1.10000, 0.90000
  146,'17199021300 ',  69.0000,2,   1,   1,   1,1.03768706, -22.887757, 1.10000, 0.90000, 1.10000, 0.90000
  147,'17123961300 ',  69.0000,2,   1,   1,   1,1.04500711, -20.384037, 1.10000, 0.90000, 1.10000, 0.90000
  148,'17167000504 ',  69.0000,2,   1,   1,   1,1.00000679, -22.164746, 1.10000, 0.90000, 1.10000, 0.90000
  149,'17171970700 ',  69.0000,2,   1,   1,   1,1.00000679, -22.359954, 1.10000, 0.90000, 1.10000, 0.90000
  150,'17097861702 ',  69.0000,2,   1,   1,   1,1.02519989, -49.331717, 1.10000, 0.90000, 1.10000, 0.90000
  151,'17105960300 ', 230.0000,2,   1,   1,   1,1.00088692, -30.881058, 1.10000, 0.90000, 1.10000, 0.90000
  152,'17177000300 ',  69.0000,2,   1,   1,   1,1.00101638, -34.739558, 1.10000, 0.90000, 1.10000, 0.90000
  153,'17179022000 ',  69.0000,2,   1,   1,   1,1.00000656, -29.389221, 1.10000, 0.90000, 1.10000, 0.90000
  154,'17119400952 ',  69.0000,2,   1,   1,   1,1.00264657, -17.239672, 1.10000, 0.90000, 1.10000, 0.90000
  155,'17099961900 ',  69.0000,2,   1,   1,   1,1.00000691, -36.658988, 1.10000, 0.90000, 1.10000, 0.90000
  156,'17119400102 ', 138.0000,2,   1,   1,   1,1.00125396, -17.107512, 1.10000, 0.90000, 1.10000, 0.90000
  157,'17161024500 ',  69.0000,2,   1,   1,   1,0.99441850, -30.033353, 1.10000, 0.90000, 1.10000, 0.90000
  158,'17011965500 ',  69.0000,2,   1,   1,   1,1.04294717, -20.558538, 1.10000, 0.90000, 1.10000, 0.90000
  159,'17051950500 ',  69.0000,2,   1,   1,   1,1.00000679, -15.703059, 1.10000, 0.90000, 1.10000, 0.90000
  160,'17099963400 ',  69.0000,2,   1,   1,   1,1.01478720, -30.647346, 1.10000, 0.90000, 1.10000, 0.90000
  161,'17115000200 ',  69.0000,2,   1,   1,   1,1.00000715, -29.510505, 1.10000, 0.90000, 1.10000, 0.90000
  162,'17019000500 ',  69.0000,2,   1,   1,   1,0.99051768, -34.548617, 1.10000, 0.90000, 1.10000, 0.90000
  163,'17011965400 ',  69.0000,2,   1,   1,   1,1.00000679, -33.375159, 1.10000, 0.90000, 1.10000, 0.90000
  164,'17103000900 ',  69.0000,2,   1,   1,   1,1.00000691, -37.193276, 1.10000, 0.90000, 1.10000, 0.90000
  165,'17143000500 ',  69.0000,2,   1,   1,   1,0.99546182, -29.392500, 1.10000, 0.90000, 1.10000, 0.90000
  166,'17031820400 ',  69.0000,2,   1,   1,   1,1.00000739, -49.388391, 1.10000, 0.90000, 1.10000, 0.90000
  167,'17011965000 ',  69.0000,2,   1,   1,   1,1.00821686, -31.023788, 1.10000, 0.90000, 1.10000, 0.90000
  168,'17119400600 ',  69.0000,2,   1,   1,   1,1.00130653, -14.537523, 1.10000, 0.90000, 1.10000, 0.90000
  169,'17031833300 ',  69.0000,2,   1,   1,   1,0.98401397, -51.030748, 1.10000, 0.90000, 1.10000, 0.90000
  170,'17019010100 ',  69.0000,2,   1,   1,   1,1.00000739, -32.871433, 1.10000, 0.90000, 1.10000, 0.90000
  171,'17099963300 ',  69.0000,2,   1,   1,   1,1.01390696, -31.274576, 1.10000, 0.90000, 1.10000, 0.90000
  172,'17089852500 ', 138.0000,2,   1,   1,   1,0.99564540, -43.391191, 1.10000, 0.90000, 1.10000, 0.90000
  173,'17167000503 ',  69.0000,2,   1,   1,   1,1.00000679, -22.737720, 1.10000, 0.90000, 1.10000, 0.90000
  174,'17019000402 ',  69.0000,2,   1,   1,   1,0.98712385, -34.548972, 1.10000, 0.90000, 1.10000, 0.90000
  175,'17073030300 ', 138.0000,2,   1,   1,   1,0.99815160, -30.445899, 1.10000, 0.90000, 1.10000, 0.90000
  176,'17149952800 ',  69.0000,2,   1,   1,   1,1.00492465, -22.532017, 1.10000, 0.90000, 1.10000, 0.90000
  177,'17031283800 ',  69.0000,2,   1,   1,   1,0.97257012, -50.780906, 1.10000, 0.90000, 1.10000, 0.90000
  178,'17043841320 ',  69.0000,2,   1,   1,   1,0.98455697, -45.381467, 1.10000, 0.90000, 1.10000, 0.90000
  179,'27141030404 ',  69.0000,2,   1,   1,   1,1.00000477, -22.324494, 1.10000, 0.90000, 1.10000, 0.90000
  180,'27049080200 ',  69.0000,2,   1,   1,   1,1.03726590, -31.287891, 1.10000, 0.90000, 1.10000, 0.90000
  181,'27061480900 ',  69.0000,2,   1,   1,   1,1.04328573, -29.668207, 1.10000, 0.90000, 1.10000, 0.90000
  182,'27171100203 ',  69.0000,2,   1,   1,   1,1.00879490, -23.170990, 1.10000, 0.90000, 1.10000, 0.90000
  183,'27123036000 ',  69.0000,2,   1,   1,   1,1.00491226, -45.312161, 1.10000, 0.90000, 1.10000, 0.90000
  184,'27163070801 ',  69.0000,2,   1,   1,   1,1.01769543, -40.194181, 1.10000, 0.90000, 1.10000, 0.90000
  185,'27053100500 ',  69.0000,1,   1,   1,   1,0.96172082, -49.083112, 1.10000, 0.90000, 1.10000, 0.90000
  186,'27165950300 ',  69.0000,2,   1,   1,   1,1.04500473, -34.403482, 1.10000, 0.90000, 1.10000, 0.90000
  187,'27103480600 ',  69.0000,2,   1,   1,   1,1.00000465, -37.746337, 1.10000, 0.90000, 1.10000, 0.90000
  188,'27099001200 ',  69.0000,2,   1,   1,   1,1.00000453, -39.908143, 1.10000, 0.90000, 1.10000, 0.90000
  189,'27049080600 ',  69.0000,2,   1,   1,   1,1.00000501, -38.885800, 1.10000, 0.90000, 1.10000, 0.90000
  190,'27131070901 ',  69.0000,2,   1,   1,   1,1.00000489, -39.858470, 1.10000, 0.90000, 1.10000, 0.90000
  191,'27139080301 ',  69.0000,2,   1,   1,   1,1.01293528, -43.110668, 1.10000, 0.90000, 1.10000, 0.90000
  192,'27053025301 ',  69.0000,2,   1,   1,   1,1.01641071, -43.375106, 1.10000, 0.90000, 1.10000, 0.90000
  193,'27163071209 ',  69.0000,2,   1,   1,   1,1.02615547, -42.924378, 1.10000, 0.90000, 1.10000, 0.90000
  194,'27037060508 ',  69.0000,2,   1,   1,   1,1.02599537, -41.450649, 1.10000, 0.90000, 1.10000, 0.90000
  195,'27037060748 ',  69.0000,2,   1,   1,   1,1.00842679, -44.334935, 1.10000, 0.90000, 1.10000, 0.90000
  196,'27075370100 ',  69.0000,2,   1,   1,   1,1.04369664, -41.301409, 1.10000, 0.90000, 1.10000, 0.90000
  197,'27053026018 ',  69.0000,2,   1,   1,   1,1.01099527, -44.871990, 1.10000, 0.90000, 1.10000, 0.90000
  198,'27101900200 ',  69.0000,2,   1,   1,   1,1.00000250, -21.844393, 1.10000, 0.90000, 1.10000, 0.90000
  199,'27105105100 ',  69.0000,2,   1,   1,   1,1.00000226, -19.768673, 1.10000, 0.90000, 1.10000, 0.90000
  200,'27141030503 ',  69.0000,2,   1,   1,   1,1.00000501, -34.382906, 1.10000, 0.90000, 1.10000, 0.90000
...
0 / END OF BUS DATA, BEGIN LOAD DATA
    1,'1 ',1,   1,   1,    14.530,     3.990,     0.000,     0.000,     0.000,     0.000,   1,1, 0
    2,'1 ',1,   1,   1,    47.460,     4.380,     0.000,     0.000,     0.000,     0.000,   1,1, 0
    3,'1 ',1,   1,   1,     2.570,     0.910,     0.000,     0.000,     0.000,     0.000,   1,1, 0
    4,'1 ',1,   1,   1,     2.060,     0.820,     0.000,     0.000,     0.000,     0.000,   1,1, 0
    5,'1 ',1,   1,   1,     8.250,     2.130,     0.000,     0.000,     0.000,     0.000,   1,1, 0
    6,'1 ',1,   1,   1,     5.030,     2.050,     0.000,     0.000,     0.000,     0.000,   1,1, 0
    7,'1 ',1,   1,   1,     9.690,     2.500,     0.000,     0.000,     0.000,     0.000,   1,1, 0
    8,'1 ',1,   1,   1,     3.430,     1.400,     0.000,     0.000,     0.000,     0.000,   1,1, 0
    9,'1 ',1,   1,   1,     2.720,     0.910,     0.000,     0.000,     0.000,     0.000,   1,1, 0
   10,'1 ',1,   1,   1,     5.350,     1.600,     0.000,     0.000,     0.000,     0.000,   1,1, 0
   11,'1 ',1,   1,   1,    26.300,     5.240,     0.000,     0.000,     0.000,     0.000,   1,1, 0
   12,'1 ',1,   1,   1,     2.540,     0.930,     0.000,     0.000,     0.000,     0.000,   1,1, 0
   13,'1 ',1,   1,   1,     3.820,     1.050,     0.000,     0.000,     0.000,     0.000,   1,1, 0
   14,'1 ',1,   1,   1,    10.040,     3.030,     0.000,     0.000,     0.000,     0.000,   1,1, 0
   15,'1 ',1,   1,   1,    77.060,     9.840,     0.000,     0.000,     0.000,     0.000,   1,1, 0
   16,'1 ',1,   1,   1,     1.470,     0.460,     0.000,     0.000,     0.000,     0.000,   1,1, 0
   17,'1 ',1,   1,   1,    37.120,     7.800,     0.000,     0.000,     0.000,     0.000,   1,1, 0
   18,'1 ',1,   1,   1,     4.970,     1.200,     0.000,     0.000,     0.000,     0.000,   1,1, 0
   19,'1 ',1,   1,   1,   100.000,   100.000,     0.000,     0.000,     0.000,     0.000,   1,1, 0
   20,'1 ',1,   1,   1,    22.290,     3.270,     0.000,     0.000,     0.000,     0.000,   1,1, 0
   21,'1 ',1,   1,   1,    14.570,     3.240,     0.000,     0.000,     0.000,     0.000,   1,1, 0
   22,'1 ',1,   1,   1,     5.180,     1.680,     0.000,     0.000,     0.000,     0.000,   1,1, 0
   23,'1 ',1,   1,   1,     1.400,     0.460,     0.000,     0.000,     0.000,     0.000,   1,1, 0
   24,'1 ',1,   1,   1,     3.260,     1.340,     0.000,     0.000,     0.000,     0.000,   1,1, 0
   25,'1 ',1,   1,   1,    11.040,     2.520,     0.000,     0.000,     0.000,     0.000,   1,1, 0
   26,'1 ',1,   1,   1,     4.820,     1.530,     0.000,     0.000,     0.000,     0.000,   1,1, 0
   27,'1 ',1,   1,   1,     9.460,     1.800,     0.000,     0.000,     0.000,     0.000,   1,1, 0
   28,'1 ',1,   1,   1,     9.500,     2.150,     0.000,     0.000,     0.000,     0.000,   1,1, 0
   29,'1 ',1,   1,   1,     3.460,     1.100,     0.000,     0.000,     0.000,     0.000,   1,1, 0
   30,'1 ',1,   1,   1,     5.050,     1.820,     0.000,     0.000,     0.000,     0.000,   1,1, 0
   31,'1 ',1,   1,   1,   100.000,    80.000,     0.000,     0.000,     0.000,     0.000,   1,1, 0
   32,'1 ',1,   1,   1,     3.070,     1.100,     0.000,     0.000,     0.000,     0.000,   1,1, 0
   33,'1 ',1,   1,   1,     1.910,     0.610,     0.000,     0.000,     0.000,     0.000,   1,1, 0
   34,'1 ',1,   1,   1,    43.680,     8.430,     0.000,     0.000,     0.000,     0.000,   1,1, 0
   35,'1 ',1,   1,   1,    38.990,     9.290,     0.000,     0.000,     0.000,     0.000,   1,1, 0
   36,'1 ',1,   1,   1,     1.720,     0.690,     0.000,     0.000,     0.000,     0.000,   1,1, 0
   37,'1 ',1,   1,   1,    13.250,     2.140,     0.000,     0.000,     0.000,     0.000,   1,1, 0
   38,'1 ',1,   1,   1,     6.950,     1.790,     0.000,     0.000,     0.000,     0.000,   1,1, 0
   39,'1 ',1,   1,   1,     7.970,     1.870,     0.000,     0.000,     0.000,     0.000,   1,1, 0
   40,'1 ',1,   1,   1,     6.400,     1.840,     0.000,     0.000,     0.000,     0.000,   1,1, 0
   41,'1 ',1,   1,   1,     7.610,     1.700,     0.000,     0.000,     0.000,     0.000,   1,1, 0
   42,'1 ',1,   1,   1,     7.770,     1.580,     0.000,     0.000,     0.000,     0.000,   1,1, 0
   43,'1 ',1,   1,   1,     1.320,     0.540,     0.000,     0.000,     0.000,     0.000,   1,1, 0
   44,'1 ',1,   1,   1,    10.140,     2.500,     0.000,     0.000,     0.000,     0.000,   1,1, 0
   45,'1 ',1,   1,   1,     6.190,     1.830,     0.000,     0.000,     0.000,     0.000,   1,1, 0
   46,'1 ',1,   1,   1,     3.420,     1.010,     0.000,     0.000,     0.000,     0.000,   1,1, 0
   47,'1 ',1,   1,   1,    17.370,     4.330,     0.000,     0.000,     0.000,     0.000,   1,1, 0
   48,'1 ',1,   1,   1,    10.920,     2.800,     0.000,     0.000,     0.000,     0.000,   1,1, 0
   49,'1 ',1,   1,   1,     2.460,     0.580,     0.000,     0.000,     0.000,     0.000,   1,1, 0
   50,'1 ',1,   1,   1,     8.250,     2.360,     0.000,     0.000,     0.000,     0.000,   1,1, 0
   51,'1 ',1,   1,   1,     9.940,     2.110,     0.000,     0.000,     0.000,     0.000,   1,1, 0
   52,'1 ',1,   1,   1,     2.520,     1.030,     0.000,     0.000,     0.000,     0.000,   1,1, 0
   53,'1 ',1,   1,   1,    13.900,     2.600,     0.000,     0.000,     0.000,     0.000,   1,1, 0
   54,'1 ',1,   1,   1,    23.350,     5.790,     0.000,     0.000,     0.000,     0.000,   1,1, 0
   55,'1 ',1,   1,   1,     3.710,     1.060,     0.000,     0.000,     0.000,     0.000,   1,1, 0
   56,'1 ',1,   1,   1,     7.730,     2.390,     0.000,     0.000,     0.000,     0.000,   1,1, 0
   57,'1 ',1,   1,   1,    38.220,     7.760,     0.000,     0.000,     0.000,     0.000,   1,1, 0
   58,'1 ',1,   1,   1,     3.470,     1.030,     0.000,     0.000,     0.000,     0.000,   1,1, 0
   59,'1 ',1,   1,   1,    10.240,     3.290,     0.000,     0.000,     0.000,     0.000,   1,1, 0
   60,'1 ',1,   1,   1,     5.550,     1.640,     0.000,     0.000,     0.000,     0.000,   1,1, 0
   61,'1 ',1,   1,   1,     4.000,     1.190,     0.000,     0.000,     0.000,     0.000,   1,1, 0
   62,'1 ',1,   1,   1,     1.470,     0.550,     0.000,     0.000,     0.000,     0.000,   1,1, 0
   63,'1 ',1,   1,   1,    15.440,     2.410,     0.000,     0.000,     0.000,     0.000,   1,1, 0
   64,'1 ',1,   1,   1,     4.400,     1.340,     0.000,     0.000,     0.000,     0.000,   1,1, 0
   65,'1 ',1,   1,   1,    11.100,     3.640,     0.000,     0.000,     0.000,     0.000,   1,1, 0
   66,'1 ',1,   1,   1,     3.770,     1.110,     0.000,     0.000,     0.000,     0.000,   1,1, 0
   67,'1 ',1,   1,   1,     3.090,     1.320,     0.000,     0.000,     0.000,     0.000,   1,1, 0
   68,'1 ',1,   1,   1,     1.670,     0.540,     0.000,     0.000,     0.000,     0.000,   1,1, 0
   69,'1 ',1,   1,   1,    52.190,    10.520,     0.000,     0.000,     0.000,     0.000,   1,1, 0
   70,'1 ',1,   1,   1,    38.400,     4.130,     0.000,     0.000,     0.000,     0.000,   1,1, 0
   71,'1 ',1,   1,   1,    28.570,     3.470,     0.000,     0.000,     0.000,     0.000,   1,1, 0
   72,'1 ',1,   1,   1,     3.970,     1.280,     0.000,     0.000,     0.000,     0.000,   1,1, 0
   73,'1 ',1,   1,   1,    16.420,     4.180,     0.000,     0.000,     0.000,     0.000,   1,1, 0
   74,'1 ',1,   1,   1,    12.830,     2.540,     0.000,     0.000,     0.000,     0.000,   1,1, 0
   75,'1 ',1,   1,   1,     6.140,     1.960,     0.000,     0.000,     0.000,     0.000,   1,1, 0
   76,'1 ',1,   1,   1,     6.350,     1.630,     0.000,     0.000,     0.000,     0.000,   1,1, 0
   77,'1 ',1,   1,   1,    13.970,     3.230,     0.000,     0.000,     0.000,     0.000,   1,1, 0
   78,'1 ',1,   1,   1,     8.560,     1.410,     0.000,     0.000,     0.000,     0.000,   1,1, 0
   79,'1 ',1,   1,   1,     1.950,     0.730,     0.000,     0.000,     0.000,     0.000,   1,1, 0
   80,'1 ',1,   1,   1,     6.480,     1.630,     0.000,     0.000,     0.000,     0.000,   1,1, 0
   81,'1 ',1,   1,   1,   100.000,    80.000,     0.000,     0.000,     0.000,     0.000,   1,1, 0
   82,'1 ',1,   1,   1,     9.400,     2.030,     0.000,     0.000,     0.000,     0.000,   1,1, 0
   83,'1 ',1,   1,   1,     3.240,     0.890,     0.000,     0.000,     0.000,     0.000,   1,1, 0
   84,'1 ',1,   1,   1,     6.330,     1.490,     0.000,     0.000,     0.000,     0.000,   1,1, 0
   85,'1 ',1,   1,   1,    60.300,    11.990,     0.000,     0.000,     0.000,     0.000,   1,1, 0
   86,'1 ',1,   1,   1,    19.620,     3.860,     0.000,     0.000,     0.000,     0.000,   1,1, 0
   87,'1 ',1,   1,   1,     5.600,     1.500,     0.000,     0.000,     0.000,     0.000,   1,1, 0
   88,'1 ',1,   1,   1,    27.600,     3.550,     0.000,     0.000,     0.000,     0.000,   1,1, 0
   89,'1 ',1,   1,   1,     9.820,     2.570,     0.000,     0.000,     0.000,     0.000,   1,1, 0
   90,'1 ',1,   1,   1,    29.780,     5.340,     0.000,     0.000,     0.000,     0.000,   1,1, 0
   91,'1 ',1,   1,   1,    10.090,     2.650,     0.000,     0.000,     0.000,     0.000,   1,1, 0
   92,'1 ',1,   1,   1,     3.270,     1.250,     0.000,     0.000,     0.000,     0.000,   1,1, 0
   93,'1 ',1,   1,   1,    16.440,     5.330,     0.000,     0.000,     0.000,     0.000,   1,1, 0
   94,'1 ',1,   1,   1,     3.370,     1.360,     0.000,     0.000,     0.000,     0.000,   1,1, 0
   95,'1 ',1,   1,   1,    19.180,     5.650,     0.000,     0.000,     0.000,     0.000,   1,1, 0
   96,'1 ',1,   1,   1,    18.480,     3.850,     0.000,     0.000,     0.000,     0.000,   1,1, 0
   97,'1 ',1,   1,   1,     5.090,     1.820,     0.000,     0.000,     0.000,     0.000,   1,1, 0
   98,'1 ',1,   1,   1,     8.090,     2.400,     0.000,     0.000,     0.000,     0.000,   1,1, 0
   99,'1 ',1,   1,   1,    12.880,     2.750,     0.000,     0.000,     0.000,     0.000,   1,1, 0
  100,'1 ',1,   1,   1,     7.090,     1.980,     0.000,     0.000,     0.000,     0.000,   1,1, 0
  101,'1 ',1,   1,   1,     7.790,     1.840,     0.000,     0.000,     0.000,     0.000,   1,1, 0
  102,'1 ',1,   1,   1,     6.830,     2.160,     0.000,     0.000,     0.000,     0.000,   1,1, 0
  103,'1 ',1,   1,   1,     8.920,     2.790,     0.000,     0.000,     0.000,     0.000,   1,1, 0
  104,'1 ',1,   1,   1,    12.170,     2.930,     0.000,     0.000,     0.000,     0.000,   1,1, 0
  105,'1 ',1,   1,   1,    18.830,     3.320,     0.000,     0.000,     0.000,     0.000,   1,1, 0
  106,'1 ',1,   1,   1,     7.700,     2.150,     0.000,     0.000,     0.000,     0.000,   1,1, 0
  107,'1 ',1,   1,   1,     5.420,     1.710,     0.000,     0.000,     0.000,     0.000,   1,1, 0
  108,'1 ',1,   1,   1,    47.030,     6.920,     0.000,     0.000,     0.000,     0.000,   1,1, 0
  109,'1 ',1,   1,   1,    23.900,     6.090,     0.000,     0.000,     0.000,     0.000,   1,1, 0
  110,'1 ',1,   1,   1,    25.130,     6.540,     0.000,     0.000,     0.000,     0.000,   1,1, 0
  111,'1 ',1,   1,   1,    11.100,     2.040,     0.000,     0.000,     0.000,     0.000,   1,1, 0
  112,'1 ',1,   1,   1,    36.080,     8.810,     0.000,     0.000,     0.000,     0.000,   1,1, 0
  113,'1 ',1,   1,   1,     5.430,     1.480,     0.000,     0.000,     0.000,     0.000,   1,1, 0
  114,'1 ',1,   1,   1,    18.840,     5.530,     0.000,     0.000,     0.000,     0.000,   1,1, 0
  115,'1 ',1,   1,   1,     8.380,     2.130,     0.000,     0.000,     0.000,     0.000,   1,1, 0
  116,'1 ',1,   1,   1,    10.080,     3.120,     0.000,     0.000,     0.000,     0.000,   1,1, 0
  117,'1 ',1,   1,   1,     8.530,     1.810,     0.000,     0.000,     0.000,     0.000,   1,1, 0
  118,'1 ',1,   1,   1,    10.020,     2.880,     0.000,     0.000,     0.000,     0.000,   1,1, 0
  119,'1 ',1,   1,   1,     4.740,     1.570,     0.000,     0.000,     0.000,     0.000,   1,1, 0
  120,'1 ',1,   1,   1,    15.050,     4.400,     0.000,     0.000,     0.000,     0.000,   1,1, 0
  121,'1 ',1,   1,   1,     1.210,     0.420,     0.000,     0.000,     0.000,     0.000,   1,1, 0
  122,'1 ',1,   1,   1,     1.880,     0.830,     0.000,     0.000,     0.000,     0.000,   1,1, 0
  123,'1 ',1,   1,   1,     3.070,     0.960,     0.000,     0.000,     0.000,     0.000,   1,1, 0
  124,'1 ',1,   1,   1,    36.180,     9.640,     0.000,     0.000,     0.000,     0.000,   1,1, 0
  125,'1 ',1,   1,   1,     7.070,     0.890,     0.000,     0.000,     0.000,     0.000,   1,1, 0
  126,'1 ',1,   1,   1,    13.210,     2.350,     0.000,     0.000,     0.000,     0.000,   1,1, 0
  127,'1 ',1,   1,   1,   106.230,    21.670,     0.000,     0.000,     0.000,     0.000,   1,1, 0
  128,'1 ',1,   1,   1,    10.590,     2.630,     0.000,     0.000,     0.000,     0.000,   1,1, 0
  129,'1 ',1,   1,   1,    25.830,     3.460,     0.000,     0.000,     0.000,     0.000,   1,1, 0
  130,'1 ',1,   1,   1,    25.850,     6.740,     0.000,     0.000,     0.000,     0.000,   1,1, 0
  131,'1 ',1,   1,   1,     1.440,     0.540,     0.000,     0.000,     0.000,     0.000,   1,1, 0
  132,'1 ',1,   1,   1,    22.250,     3.750,     0.000,     0.000,     0.000,     0.000,   1,1, 0
  133,'1 ',1,   1,   1,    29.540,     9.040,     0.000,     0.000,     0.000,     0.000,   1,1, 0
  134,'1 ',1,   1,   1,    16.630,     3.570,     0.000,     0.000,     0.000,     0.000,   1,1, 0
  135,'1 ',1,   1,   1,     5.010,     1.510,     0.000,     0.000,     0.000,     0.000,   1,1, 0
  136,'1 ',1,   1,   1,    14.000,     3.440,     0.000,     0.000,     0.000,     0.000,   1,1, 0
  137,'1 ',1,   1,   1,    20.830,     5.430,     0.000,     0.000,     0.000,     0.000,   1,1, 0
  138,'1 ',1,   1,   1,    10.480,     2.560,     0.000,     0.000,     0.000,     0.000,   1,1, 0
  139,'1 ',1,   1,   1,     6.000,     2.050,     0.000,     0.000,     0.000,     0.000,   1,1, 0
  140,'1 ',1,   1,   1,     3.390,     1.320,     0.000,     0.000,     0.000,     0.000,   1,1, 0
  141,'1 ',1,   1,   1,    10.070,     2.570,     0.000,     0.000,     0.000,     0.000,   1,1, 0
  142,'1 ',1,   1,   1,     5.220,     1.460,     0.000,     0.000,     0.000,     0.000,   1,1, 0
  143,'1 ',1,   1,   1,    35.850,     7.690,     0.000,     0.000,     0.000,     0.000,   1,1, 0
  144,'1 ',1,   1,   1,    29.190,     6.460,     0.000,     0.000,     0.000,     0.000,   1,1, 0
  145,'1 ',1,   1,   1,    15.200,     3.520,     0.000,     0.000,     0.000,     0.000,   1,1, 0
  146,'1 ',1,   1,   1,     5.920,     1.730,     0.000,     0.000,     0.000,     0.000,   1,1, 0
  147,'1 ',1,   1,   1,     6.830,     2.000,     0.000,     0.000,     0.000,     0.000,   1,1, 0
  148,'1 ',1,   1,   1,     1.950,     0.710,     0.000,     0.000,     0.000,     0.000,   1,1, 0
  149,'1 ',1,   1,   1,     5.830,     2.020,     0.000,     0.000,     0.000,     0.000,   1,1, 0
  150,'1 ',1,   1,   1,     4.670,     1.440,     0.000,     0.000,     0.000,     0.000,   1,1, 0
  151,'1 ',1,   1,   1,    20.140,     3.860,     0.000,     0.000,     0.000,     0.000,   1,1, 0
  152,'1 ',1,   1,   1,     7.390,     2.370,     0.000,     0.000,     0.000,     0.000,   1,1, 0
  153,'1 ',1,   1,   1,    19.350,     5.270,     0.000,     0.000,     0.000,     0.000,   1,1, 0
  154,'1 ',1,   1,   1,     5.510,     1.570,     0.000,     0.000,     0.000,     0.000,   1,1, 0
  155,'1 ',1,   1,   1,    13.360,     3.220,     0.000,     0.000,     0.000,     0.000,   1,1, 0
  156,'1 ',1,   1,   1,     4.890,     1.640,     0.000,     0.000,     0.000,     0.000,   1,1, 0
  157,'1 ',1,   1,   1,    61.030,    12.530,     0.000,     0.000,     0.000,     0.000,   1,1, 0
  158,'1 ',1,   1,   1,     4.170,     1.310,     0.000,     0.000,     0.000,     0.000,   1,1, 0
  159,'1 ',1,   1,   1,    18.040,     5.200,     0.000,     0.000,     0.000,     0.000,   1,1, 0
  160,'1 ',1,   1,   1,     7.840,     2.000,     0.000,     0.000,     0.000,     0.000,   1,1, 0
  161,'1 ',1,   1,   1,     2.830,     0.930,     0.000,     0.000,     0.000,     0.000,   1,1, 0
  162,'1 ',1,   1,   1,     3.370,     1.210,     0.000,     0.000,     0.000,     0.000,   1,1, 0
  163,'1 ',1,   1,   1,     6.270,     1.750,     0.000,     0.000,     0.000,     0.000,   1,1, 0
  164,'1 ',1,   1,   1,    12.880,     4.030,     0.000,     0.000,     0.000,     0.000,   1,1, 0
  165,'1 ',1,   1,   1,    26.180,     3.050,     0.000,     0.000,     0.000,     0.000,   1,1, 0
  166,'1 ',1,   1,   1,    21.150,     4.280,     0.000,     0.000,     0.000,     0.000,   1,1, 0
  167,'1 ',1,   1,   1,    10.560,     2.100,     0.000,     0.000,     0.000,     0.000,   1,1, 0
  168,'1 ',1,   1,   1,    10.800,     3.490,     0.000,     0.000,     0.000,     0.000,   1,1, 0
  169,'1 ',1,   1,   1,     6.210,     1.490,     0.000,     0.000,     0.000,     0.000,   1,1, 0
  170,'1 ',1,   1,   1,     3.770,     1.360,     0.000,     0.000,     0.000,     0.000,   1,1, 0
  171,'1 ',1,   1,   1,     3.060,     0.980,     0.000,     0.000,     0.000,     0.000,   1,1, 0
  172,'1 ',1,   1,   1,    35.750,     8.040,     0.000,     0.000,     0.000,     0.000,   1,1, 0
  173,'1 ',1,   1,   1,     3.870,     1.290,     0.000,     0.000,     0.000,     0.000,   1,1, 0
  174,'1 ',1,   1,   1,     2.390,     0.980,     0.000,     0.000,     0.000,     0.000,   1,1, 0
  175,'1 ',1,   1,   1,    17.390,     5.080,     0.000,     0.000,     0.000,     0.000,   1,1, 0
  176,'1 ',1,   1,   1,     6.070,     1.740,     0.000,     0.000,     0.000,     0.000,   1,1, 0
  177,'1 ',1,   1,   1,     3.810,     1.280,     0.000,     0.000,     0.000,     0.000,   1,1, 0
  178,'1 ',1,   1,   1,     1.650,     0.560,     0.000,     0.000,     0.000,     0.000,   1,1, 0
  179,'1 ',1,   1,   1,    11.640,     3.360,     0.000,     0.000,     0.000,     0.000,   1,1, 0
  180,'1 ',1,   1,   1,    34.420,     7.950,     0.000,     0.000,     0.000,     0.000,   1,1, 0
  181,'1 ',1,   1,   1,    12.670,     3.970,     0.000,     0.000,     0.000,     0.000,   1,1, 0
  182,'1 ',1,   1,   1,     7.650,     1.940,     0.000,     0.000,     0.000,     0.000,   1,1, 0
  183,'1 ',1,   1,   1,     3.560,     1.070,     0.000,     0.000,     0.000,     0.000,   1,1, 0
  184,'1 ',1,   1,   1,     1.670,     0.530,     0.000,     0.000,     0.000,     0.000,   1,1, 0
  185,'1 ',1,   1,   1,    14.550,     2.910,     0.000,     0.000,     0.000,     0.000,   1,1, 0
  186,'1 ',1,   1,   1,     5.050,     1.730,     0.000,     0.000,     0.000,     0.000,   1,1, 0
  187,'1 ',1,   1,   1,     5.370,     1.690,     0.000,     0.000,     0.000,     0.000,   1,1, 0
  188,'1 ',1,   1,   1,     2.870,     0.710,     0.000,     0.000,     0.000,     0.000,   1,1, 0
  189,'1 ',1,   1,   1,    13.400,     2.350,     0.000,     0.000,     0.000,     0.000,   1,1, 0
  190,'1 ',1,   1,   1,    20.690,     4.290,     0.000,     0.000,     0.000,     0.000,   1,1, 0
  191,'1 ',1,   1,   1,    56.370,    14.280,     0.000,     0.000,     0.000,     0.000,   1,1, 0
  192,'1 ',1,   1,   1,     2.410,     0.740,     0.000,     0.000,     0.000,     0.000,   1,1, 0
  193,'1 ',1,   1,   1,     5.480,     1.890,     0.000,     0.000,     0.000,     0.000,   1,1, 0
  194,'1 ',1,   1,   1,    10.690,     3.130,     0.000,     0.000,     0.000,     0.000,   1,1, 0
  195,'1 ',1,   1,   1,    10.840,     2.780,     0.000,     0.000,     0.000,     0.000,   1,1, 0
  196,'1 ',1,   1,   1,     4.610,     1.550,     0.000,     0.000,     0.000,     0.000,   1,1, 0
  197,'1 ',1,   1,   1,     6.510,     1.960,     0.000,     0.000,     0.000,     0.000,   1,1, 0
  198,'1 ',1,   1,   1,     3.470,     1.250,     0.000,     0.000,     0.000,     0.000,   1,1, 0
  199,'1 ',1,   1,   1,    11.500,     2.650,     0.000,     0.000,     0.000,     0.000,   1,1, 0
  200,'1 ',1,   1,   1,    10.030,     3.090,     0.000,     0.000,     0.000,     0.000,   1,1, 0
...
0 / END OF LOAD DATA, BEGIN FIXED SHUNT DATA
0 / END OF FIXED SHUNT DATA, BEGIN GENERATOR DATA
    1,'1 ',   444.720,   -71.374,   220.000,  -215.500,1.00000,    0,   100.000,   0.00000,   1.00000,   0.00000,   0.00000,1.00000,1,  100.0,   444.720,   195.000,   1,1.0000,   0,1.0000,   0,1.0000,   0,1.0000,0,1.0000
    1,'2 ',   444.720,   -71.374,   220.000,  -215.500,1.00000,    0,   100.000,   0.00000,   1.00000,   0.00000,   0.00000,1.00000,1,  100.0,   444.720,   195.000,   1,1.0000,   0,1.0000,   0,1.0000,   0,1.0000,0,1.0000
    1,'3 ',   444.720,   -71.374,   220.000,  -215.500,1.00000,    0,   100.000,   0.00000,   1.00000,   0.00000,   0.00000,1.00000,1,  100.0,   444.720,   195.000,   1,1.0000,   0,1.0000,   0,1.0000,   0,1.0000,0,1.0000
    1,'4 ',   444.720,   -71.374,   220.000,  -215.500,1.00000,    0,   100.000,   0.00000,   1.00000,   0.00000,   0.00000,1.00000,1,  100.0,   444.720,   195.000,   1,1.0000,   0,1.0000,   0,1.0000,   0,1.0000,0,1.0000
    2,'1 ',   225.040,    23.770,   181.330,  -174.330,1.00000,    0,   100.000,   0.00000,   1.00000,   0.00000,   0.00000,1.00000,1,  100.0,   360.100,   135.000,   1,1.0000,   0,1.0000,   0,1.0000,   0,1.0000,0,1.0000
    2,'2 ',   225.040,    23.770,   181.330,  -174.330,1.00000,    0,   100.000,   0.00000,   1.00000,   0.00000,   0.00000,1.00000,1,  100.0,   360.100,   135.000,   1,1.0000,   0,1.0000,   0,1.0000,   0,1.0000,0,1.0000
    2,'3 ',   225.040,    23.770,   181.330,  -174.330,1.00000,    0,   100.000,   0.00000,   1.00000,   0.00000,   0.00000,1.00000,1,  100.0,   360.100,   135.000,   1,1.0000,   0,1.0000,   0,1.0000,   0,1.0000,0,1.0000
    3,'1 ',   597.140,  -253.341,   393.000,  -393.000,1.00000,    0,   100.000,   0.00000,   1.00000,   0.00000,   0.00000,1.00000,1,  100.0,   811.900,   275.000,   1,1.0000,   0,1.0000,   0,1.0000,   0,1.0000,0,1.0000
    4,'1 ',   220.000,    -1.525,   352.000,  -352.000,1.00000,    0,   100.000,   0.00000,   1.00000,   0.00000,   0.00000,1.00000,1,  100.0,   725.900,   220.000,   1,1.0000,   0,1.0000,   0,1.0000,   0,1.0000,0,1.0000
    5,'1 ',   339.180,    23.746,   337.000,  -337.000,1.00000,    0,   100.000,   0.00000,   1.00000,   0.00000,   0.00000,1.00000,1,  100.0,   695.900,   250.000,   1,1.0000,   0,1.0000,   0,1.0000,   0,1.0000,0,1.0000
    6,'1 ',   423.943,   -41.231,   223.000,  -223.000,1.00000,    0,   100.000,   0.00000,   1.00000,   0.00000,   0.00000,1.00000,1,  100.0,   679.500,    60.000,   1,1.0000,   0,1.0000,   0,1.0000,   0,1.0000,0,1.0000
    7,'1 ',   253.000,    -3.101,   374.000,  -292.000,1.00000,    0,   100.000,   0.00000,   1.00000,   0.00000,   0.00000,1.00000,1,  100.0,   602.800,   253.000,   1,1.0000,   0,1.0000,   0,1.0000,   0,1.0000,0,1.0000
    8,'1 ',   295.000,   -16.362,   357.000,  -279.000,1.00000,    0,   100.000,   0.00000,   1.00000,   0.00000,   0.00000,1.00000,1,  100.0,   576.300,   295.000,   1,1.0000,   0,1.0000,   0,1.0000,   0,1.0000,0,1.0000
    9,'1 ',    93.864,    -1.505,    54.670,   -52.330,1.00000,    0,   100.000,   0.00000,   1.00000,   0.00000,   0.00000,1.00000,1,  100.0,   107.830,    38.000,   1,1.0000,   0,1.0000,   0,1.0000,   0,1.0000,0,1.0000
    9,'2 ',    93.864,    -1.505,    54.670,   -52.330,1.00000,    0,   100.000,   0.00000,   1.00000,   0.00000,   0.00000,1.00000,1,  100.0,   107.830,    38.000,   1,1.0000,   0,1.0000,   0,1.0000,   0,1.0000,0,1.0000
    9,'3 ',    93.864,    -1.505,    54.670,   -52.330,1.00000,    0,   100.000,   0.00000,   1.00000,   0.00000,   0.00000,1.00000,1,  100.0,   107.830,    38.000,   1,1.0000,   0,1.0000,   0,1.0000,   0,1.0000,0,1.0000
   10,'1 ',     9.000,     6.068,   145.000,  -145.000,1.00000,    0,   100.000,   0.00000,   1.00000,   0.00000,   0.00000,1.00000,1,  100.0,     9.000,     0.000,   1,1.0000,   0,1.0000,   0,1.0000,   0,1.0000,1,1.0000
   11,'1 ',    30.874,     3.655,    45.500,   -35.500,1.00000,    0,   100.000,   0.00000,   1.00000,   0.00000,   0.00000,1.00000,1,  100.0,    73.370,    20.250,   1,1.0000,   0,1.0000,   0,1.0000,   0,1.0000,0,1.0000
   11,'2 ',    30.874,     3.655,    45.500,   -35.500,1.00000,    0,   100.000,   0.00000,   1.00000,   0.00000,   0.00000,1.00000,1,  100.0,    73.370,    20.250,   1,1.0000,   0,1.0000,   0,1.0000,   0,1.0000,0,1.0000
   11,'3 ',    30.874,     3.655,    45.500,   -35.500,1.00000,    0,   100.000,   0.00000,   1.00000,   0.00000,   0.00000,1.00000,1,  100.0,    73.370,    20.250,   1,1.0000,   0,1.0000,   0,1.0000,   0,1.0000,0,1.0000
   11,'4 ',    30.874,     3.655,    45.500,   -35.500,1.00000,    0,   100.000,   0.00000,   1.00000,   0.00000,   0.00000,1.00000,1,  100.0,    73.370,    20.250,   1,1.0000,   0,1.0000,   0,1.0000,   0,1.0000,0,1.0000
   12,'1 ',     6.000,     2.224,    42.670,   -42.670,1.00000,    0,   100.000,   0.00000,   1.00000,   0.00000,   0.00000,1.00000,1,  100.0,    88.030,     6.000,   1,1.0000,   0,1.0000,   0,1.0000,   0,1.0000,0,1.0000
   12,'2 ',     6.000,     2.224,    42.670,   -42.670,1.00000,    0,   100.000,   0.00000,   1.00000,   0.00000,   0.00000,1.00000,1,  100.0,    88.030,     6.000,   1,1.0000,   0,1.0000,   0,1.0000,   0,1.0000,0,1.0000
   12,'3 ',     6.000,     2.224,    42.670,   -42.670,1.00000,    0,   100.000,   0.00000,   1.00000,   0.00000,   0.00000,1.00000,1,  100.0,    88.030,     6.000,   1,1.0000,   0,1.0000,   0,1.0000,   0,1.0000,0,1.0000
   13,'1 ',     2.670,    20.822,    41.330,   -41.330,1.00000,    0,   100.000,   0.00000,   1.00000,   0.00000,   0.00000,1.00000,1,  100.0,     2.670,     0.000,   1,1.0000,   0,1.0000,   0,1.0000,   0,1.0000,1,1.0000
   13,'2 ',     2.670,    20.822,    41.330,   -41.330,1.00000,    0,   100.000,   0.00000,   1.00000,   0.00000,   0.00000,1.00000,1,  100.0,     2.670,     0.000,   1,1.0000,   0,1.0000,   0,1.0000,   0,1.0000,1,1.0000
   13,'3 ',     2.670,    20.822,    41.330,   -41.330,1.00000,    0,   100.000,   0.00000,   1.00000,   0.00000,   0.00000,1.00000,1,  100.0,     2.670,     0.000,   1,1.0000,   0,1.0000,   0,1.0000,   0,1.0000,1,1.0000
   14,'1 ',   161.660,    22.465,   179.000,  -124.000,1.00000,    0,   100.000,   0.00000,   1.00000,   0.00000,   0.00000,1.00000,1,  100.0,   256.100,    20.000,   1,1.0000,   0,1.0000,   0,1.0000,   0,1.0000,0,1.0000
   15,'1 ',    50.830,     7.563,    33.500,   -28.500,1.00000,    0,   100.000,   0.00000,   1.00000,   0.00000,   0.00000,1.00000,1,  100.0,    59.100,    17.750,   1,1.0000,   0,1.0000,   0,1.0000,   0,1.0000,0,1.0000
   15,'2 ',    56.453,     7.563,    33.500,   -28.500,1.00000,    0,   100.000,   0.00000,   1.00000,   0.00000,   0.00000,1.00000,1,  100.0,    59.100,    17.750,   1,1.0000,   0,1.0000,   0,1.0000,   0,1.0000,0,1.0000
   16,'1 ',     2.670,    29.002,    38.000,   -38.000,1.00000,    0,   100.000,   0.00000,   1.00000,   0.00000,   0.00000,1.00000,1,  100.0,     2.670,     0.000,   1,1.0000,   0,1.0000,   0,1.0000,   0,1.0000,1,1.0000
   16,'2 ',     2.670,    29.002,    38.000,   -38.000,1.00000,    0,   100.000,   0.00000,   1.00000,   0.00000,   0.00000,1.00000,1,  100.0,     2.670,     0.000,   1,1.0000,   0,1.0000,   0,1.0000,   0,1.0000,1,1.0000
   16,'3 ',     2.670,    29.002,    38.000,   -38.000,1.00000,    0,   100.000,   0.00000,   1.00000,   0.00000,   0.00000,1.00000,1,  100.0,     2.670,     0.000,   1,1.0000,   0,1.0000,   0,1.0000,   0,1.0000,1,1.0000
   17,'1 ',    45.000,    -2.682,   135.000,  -106.000,1.00000,    0,   100.000,   0.00000,   1.00000,   0.00000,   0.00000,1.00000,1,  100.0,   218.500,    45.000,   1,1.0000,   0,1.0000,   0,1.0000,   0,1.0000,0,1.0000
   18,'1 ',   132.800,    24.360,   103.000,  -103.000,1.00000,    0,   100.000,   0.00000,   1.00000,   0.00000,   0.00000,1.00000,1,  100.0,   212.000,    80.000,   1,1.0000,   0,1.0000,   0,1.0000,   0,1.0000,0,1.0000
   19,'1 ',   200.000,   -97.000,    97.000,   -97.000,1.00000,    0,   100.000,   0.00000,   1.00000,   0.00000,   0.00000,1.00000,1,  100.0,   200.000,     0.000,   1,1.0000,   0,1.0000,   0,1.0000,   0,1.0000,1,1.0000
   20,'1 ',     6.000,    10.946,    97.000,   -97.000,1.00000,    0,   100.000,   0.00000,   1.00000,   0.00000,   0.00000,1.00000,1,  100.0,     6.000,     0.000,   1,1.0000,   0,1.0000,   0,1.0000,   0,1.0000,1,1.0000
   21,'1 ',    30.000,    -3.103,    30.670,   -30.670,1.00000,    0,   100.000,   0.00000,   1.00000,   0.00000,   0.00000,1.00000,1,  100.0,    63.000,    30.000,   1,1.0000,   0,1.0000,   0,1.0000,   0,1.0000,0,1.0000
   21,'2 ',    30.000,    -3.103,    30.670,   -30.670,1.00000,    0,   100.000,   0.00000,   1.00000,   0.00000,   0.00000,1.00000,1,  100.0,    63.000,    30.000,   1,1.0000,   0,1.0000,   0,1.0000,   0,1.0000,0,1.0000
   21,'3 ',    30.000,    -3.103,    30.670,   -30.670,1.00000,    0,   100.000,   0.00000,   1.00000,   0.00000,   0.00000,1.00000,1,  100.0,    63.000,    30.000,   1,1.0000,   0,1.0000,   0,1.0000,   0,1.0000,0,1.0000
   22,'1 ',     3.000,     7.671,    44.500,   -44.500,1.00000,    0,   100.000,   0.00000,   1.00000,   0.00000,   0.00000,1.00000,1,  100.0,     3.000,     0.000,   1,1.0000,   0,1.0000,   0,1.0000,   0,1.0000,1,1.0000
   22,'2 ',     3.000,     7.671,    44.500,   -44.500,1.00000,    0,   100.000,   0.00000,   1.00000,   0.00000,   0.00000,1.00000,1,  100.0,     3.000,     0.000,   1,1.0000,   0,1.0000,   0,1.0000,   0,1.0000,1,1.0000
   23,'1 ',    30.000,    30.247,    37.330,   -29.330,1.00000,    0,   100.000,   0.00000,   1.00000,   0.00000,   0.00000,1.00000,1,  100.0,    60.500,    30.000,   1,1.0000,   0,1.0000,   0,1.0000,   0,1.0000,0,1.0000
   23,'2 ',    30.000,    30.247,    37.330,   -29.330,1.00000,    0,   100.000,   0.00000,   1.00000,   0.00000,   0.00000,1.00000,1,  100.0,    60.500,    30.000,   1,1.0000,   0,1.0000,   0,1.0000,   0,1.0000,0,1.0000
   23,'3 ',    30.000,    30.247,    37.330,   -29.330,1.00000,    0,   100.000,   0.00000,   1.00000,   0.00000,   0.00000,1.00000,1,  100.0,    60.500,    30.000,   1,1.0000,   0,1.0000,   0,1.0000,   0,1.0000,0,1.0000
   24,'1 ',    10.000,    13.433,    56.000,   -43.500,1.00000,    0,   100.000,   0.00000,   1.00000,   0.00000,   0.00000,1.00000,1,  100.0,    90.000,    10.000,   1,1.0000,   0,1.0000,   0,1.0000,   0,1.0000,0,1.0000
   24,'2 ',    10.000,    13.433,    56.000,   -43.500,1.00000,    0,   100.000,   0.00000,   1.00000,   0.00000,   0.00000,1.00000,1,  100.0,    90.000,    10.000,   1,1.0000,   0,1.0000,   0,1.0000,   0,1.0000,0,1.0000
   25,'1 ',     6.000,    25.405,    29.000,   -29.000,1.00000,    0,   100.000,   0.00000,   1.00000,   0.00000,   0.00000,1.00000,1,  100.0,    59.930,     6.000,   1,1.0000,   0,1.0000,   0,1.0000,   0,1.0000,0,1.0000
   25,'2 ',     6.000,    25.405,    29.000,   -29.000,1.00000,    0,   100.000,   0.00000,   1.00000,   0.00000,   0.00000,1.00000,1,  100.0,    59.930,     6.000,   1,1.0000,   0,1.0000,   0,1.0000,   0,1.0000,0,1.0000
   25,'3 ',     6.000,    25.405,    29.000,   -29.000,1.00000,    0,   100.000,   0.00000,   1.00000,   0.00000,   0.00000,1.00000,1,  100.0,    59.930,     6.000,   1,1.0000,   0,1.0000,   0,1.0000,   0,1.0000,0,1.0000
   26,'1 ',    48.700,     7.346,    85.000,   -85.000,1.00000,    0,   100.000,   0.00000,   1.00000,   0.00000,   0.00000,1.00000,1,  100.0,    48.700,     0.000,   1,1.0000,   0,1.0000,   0,1.0000,   0,1.0000,1,1.0000
   27,'1 ',     2.500,    -5.396,    38.500,   -38.500,1.00000,    0,   100.000,   0.00000,   1.00000,   0.00000,   0.00000,1.00000,1,  100.0,     2.500,     0.000,   1,1.0000,   0,1.0000,   0,1.0000,   0,1.0000,1,1.0000
   27,'2 ',     2.500,    -5.396,    38.500,   -38.500,1.00000,    0,   100.000,   0.00000,   1.00000,   0.00000,   0.00000,1.00000,1,  100.0,     2.500,     0.000,   1,1.0000,   0,1.0000,   0,1.0000,   0,1.0000,1,1.0000
   28,'1 ',     6.000,    37.973,    38.000,   -38.000,1.00000,    0,   100.000,   0.00000,   1.00000,   0.00000,   0.00000,1.00000,1,  100.0,    78.800,     6.000,   1,1.0000,   0,1.0000,   0,1.0000,   0,1.0000,0,1.0000
   28,'2 ',     6.000,    37.973,    38.000,   -38.000,1.00000,    0,   100.000,   0.00000,   1.00000,   0.00000,   0.00000,1.00000,1,  100.0,    78.800,     6.000,   1,1.0000,   0,1.0000,   0,1.0000,   0,1.0000,0,1.0000
   29,'1 ',     5.000,    -1.005,    74.000,   -74.000,1.00000,    0,   100.000,   0.00000,   1.00000,   0.00000,   0.00000,1.00000,1,  100.0,     5.000,     0.000,   1,1.0000,   0,1.0000,   0,1.0000,   0,1.0000,1,1.0000
   30,'1 ',    53.470,    -3.131,    73.000,   -73.000,1.00000,    0,   100.000,   0.00000,   1.00000,   0.00000,   0.00000,1.00000,1,  100.0,    53.470,     0.000,   1,1.0000,   0,1.0000,   0,1.0000,   0,1.0000,1,1.0000
   31,'1 ',   150.000,    12.547,    73.000,   -73.000,1.00000,    0,   100.000,   0.00000,   1.00000,   0.00000,   0.00000,1.00000,1,  100.0,   150.000,     0.000,   1,1.0000,   0,1.0000,   0,1.0000,   0,1.0000,1,1.0000
   32,'1 ',     8.000,     6.490,    73.000,   -73.000,1.00000,    0,   100.000,   0.00000,   1.00000,   0.00000,   0.00000,1.00000,1,  100.0,     8.000,     0.000,   1,1.0000,   0,1.0000,   0,1.0000,   0,1.0000,1,1.0000
   33,'1 ',     8.000,     5.669,    73.000,   -73.000,1.00000,    0,   100.000,   0.00000,   1.00000,   0.00000,   0.00000,1.00000,1,  100.0,     8.000,     0.000,   1,1.0000,   0,1.0000,   0,1.0000,   0,1.0000,1,1.0000
   34,'1 ',    30.000,    32.117,    84.000,   -66.000,1.00000,    0,   100.000,   0.00000,   1.00000,   0.00000,   0.00000,1.00000,1,  100.0,   136.000,    30.000,   1,1.0000,   0,1.0000,   0,1.0000,   0,1.0000,0,1.0000
   35,'1 ',    16.000,     6.353,     9.880,    -7.750,1.00000,    0,   100.000,   0.00000,   1.00000,   0.00000,   0.00000,1.00000,1,  100.0,    16.000,     2.500,   1,1.0000,   0,1.0000,   0,1.0000,   0,1.0000,0,1.0000
   35,'2 ',    16.000,     6.353,     9.880,    -7.750,1.00000,    0,   100.000,   0.00000,   1.00000,   0.00000,   0.00000,1.00000,1,  100.0,    16.000,     2.500,   1,1.0000,   0,1.0000,   0,1.0000,   0,1.0000,0,1.0000
   35,'3 ',    16.000,     6.353,     9.880,    -7.750,1.00000,    0,   100.000,   0.00000,   1.00000,   0.00000,   0.00000,1.00000,1,  100.0,    16.000,     2.500,   1,1.0000,   0,1.0000,   0,1.0000,   0,1.0000,0,1.0000
   35,'4 ',    16.000,     6.353,     9.880,    -7.750,1.00000,    0,   100.000,   0.00000,   1.00000,   0.00000,   0.00000,1.00000,1,  100.0,    16.000,     2.500,   1,1.0000,   0,1.0000,   0,1.0000,   0,1.0000,0,1.0000
   35,'5 ',    16.000,     6.353,     9.880,    -7.750,1.00000,    0,   100.000,   0.00000,   1.00000,   0.00000,   0.00000,1.00000,1,  100.0,    16.000,     2.500,   1,1.0000,   0,1.0000,   0,1.0000,   0,1.0000,0,1.0000
   35,'6 ',    16.000,     6.353,     9.880,    -7.750,1.00000,    0,   100.000,   0.00000,   1.00000,   0.00000,   0.00000,1.00000,1,  100.0,    16.000,     2.500,   1,1.0000,   0,1.0000,   0,1.0000,   0,1.0000,0,1.0000
   35,'7 ',    16.000,     6.353,     9.880,    -7.750,1.00000,    0,   100.000,   0.00000,   1.00000,   0.00000,   0.00000,1.00000,1,  100.0,    16.000,     2.500,   1,1.0000,   0,1.0000,   0,1.0000,   0,1.0000,0,1.0000
   35,'8 ',    16.000,     6.353,     9.880,    -7.750,1.00000,    0,   100.000,   0.00000,   1.00000,   0.00000,   0.00000,1.00000,1,  100.0,    16.000,     2.500,   1,1.0000,   0,1.0000,   0,1.0000,   0,1.0000,0,1.0000
   36,'1 ',    55.000,    21.611,    94.000,   -60.000,1.00000,    0,   100.000,   0.00000,   1.00000,   0.00000,   0.00000,1.00000,1,  100.0,    57.000,    55.000,   1,1.0000,   0,1.0000,   0,1.0000,   0,1.0000,0,1.0000
   37,'1 ',    36.000,     4.035,    40.000,   -40.000,1.00000,    0,   100.000,   0.00000,   1.00000,   0.00000,   0.00000,1.00000,1,  100.0,   119.000,    36.000,   1,1.0000,   0,1.0000,   0,1.0000,   0,1.0000,0,1.0000
   38,'1 ',    29.260,    -7.368,    18.330,   -18.330,1.00000,    0,   100.000,   0.00000,   1.00000,   0.00000,   0.00000,1.00000,1,  100.0,    29.260,     0.000,   1,1.0000,   0,1.0000,   0,1.0000,   0,1.0000,1,1.0000
   38,'2 ',    29.260,    -7.368,    18.330,   -18.330,1.00000,    0,   100.000,   0.00000,   1.00000,   0.00000,   0.00000,1.00000,1,  100.0,    29.260,     0.000,   1,1.0000,   0,1.0000,   0,1.0000,   0,1.0000,1,1.0000
   38,'3 ',    29.260,    -7.368,    18.330,   -18.330,1.00000,    0,   100.000,   0.00000,   1.00000,   0.00000,   0.00000,1.00000,1,  100.0,    29.260,     0.000,   1,1.0000,   0,1.0000,   0,1.0000,   0,1.0000,1,1.0000
   39,'1 ',    28.800,    29.000,    29.000,   -26.500,1.00000,    0,   100.000,   0.00000,   1.00000,   0.00000,   0.00000,1.00000,1,  100.0,    54.000,    22.500,   1,1.0000,   0,1.0000,   0,1.0000,   0,1.0000,0,1.0000
   39,'2 ',    28.800,    29.000,    29.000,   -26.500,1.00000,    0,   100.000,   0.00000,   1.00000,   0.00000,   0.00000,1.00000,1,  100.0,    54.000,    22.500,   1,1.0000,   0,1.0000,   0,1.0000,   0,1.0000,0,1.0000
   40,'1 ',    14.230,    -1.889,    48.000,   -48.000,1.00000,    0,   100.000,   0.00000,   1.00000,   0.00000,   0.00000,1.00000,1,  100.0,    14.230,     0.000,   1,1.0000,   0,1.0000,   0,1.0000,   0,1.0000,1,1.0000
   41,'1 ',    61.190,    -5.564,    48.000,   -48.000,1.00000,    0,   100.000,   0.00000,   1.00000,   0.00000,   0.00000,1.00000,1,  100.0,    61.190,     0.000,   1,1.0000,   0,1.0000,   0,1.0000,   0,1.0000,1,1.0000
   42,'1 ',     5.990,     2.301,    48.000,   -48.000,1.00000,    0,   100.000,   0.00000,   1.00000,   0.00000,   0.00000,1.00000,1,  100.0,     5.990,     0.000,   1,1.0000,   0,1.0000,   0,1.0000,   0,1.0000,1,1.0000
   43,'1 ',     6.080,     0.626,    48.000,   -48.000,1.00000,    0,   100.000,   0.00000,   1.00000,   0.00000,   0.00000,1.00000,1,  100.0,     6.080,     0.000,   1,1.0000,   0,1.0000,   0,1.0000,   0,1.0000,1,1.0000
   44,'1 ',     5.000,     2.112,    47.000,   -47.000,1.00000,    0,   100.000,   0.00000,   1.00000,   0.00000,   0.00000,1.00000,1,  100.0,     5.000,     0.000,   1,1.0000,   0,1.0000,   0,1.0000,   0,1.0000,1,1.0000
   45,'1 ',    13.000,     6.451,    28.000,   -22.000,1.00000,    0,   100.000,   0.00000,   1.00000,   0.00000,   0.00000,1.00000,1,  100.0,    45.100,    13.000,   1,1.0000,   0,1.0000,   0,1.0000,   0,1.0000,0,1.0000
   45,'2 ',    13.000,     6.451,    28.000,   -22.000,1.00000,    0,   100.000,   0.00000,   1.00000,   0.00000,   0.00000,1.00000,1,  100.0,    45.100,    13.000,   1,1.0000,   0,1.0000,   0,1.0000,   0,1.0000,0,1.0000
...